test/data/three_phase/3phasesource_CT_line_load/result.csv
# result.csv run at 2000-01-01 00:00:00 EST on 10 powerflow objects (not all are nodes)
node_name,voltA_real,voltA_imag,voltB_real,voltB_imag,voltC_real,voltC_imag
R1-12-47-1_node_617,7216.880000,0.000000,-3608.440000,-6250.000000,-3608.440000,6250.000000
R1-12-47-1_tn_556,-58.647814,102.067365,-58.647814,102.067365,0.000000,0.000000
R1-12-47-1_tm_556,-58.560949,101.664421,-58.560949,101.664421,0.000000,0.000000
R1-12-47-1_tn_1154,-58.560949,101.664421,-58.560949,101.664421,0.000000,0.000000
